<routes>
    <vType id="lead_car" accel="2.2" decel="50.0" emergencyDecel="50.0" sigma="0.0" length="4.8" width="1.9" minGap="2.5" maxSpeed="13.89" guiShape="passenger/wagon"/>
    <vType id="host_car" accel="2.0" decel="50.0" emergencyDecel="50.0" sigma="0.0" length="4.6" width="1.9" minGap="2.5" maxSpeed="13.89" guiShape="passenger/sedan"/>
    <vType id="main_car" accel="2.0" decel="50.0" emergencyDecel="50.0" sigma="0.0" length="4.4" width="1.85" minGap="2.5" maxSpeed="13.89" guiShape="passenger/hatchback"/>
    <vType id="merge_car" accel="2.1" decel="50.0" emergencyDecel="50.0" sigma="0.0" length="4.5" width="1.9" minGap="2.5" maxSpeed="13.89" guiShape="passenger/sedan"/>
    <vType id="ramp_car" accel="2.0" decel="50.0" emergencyDecel="50.0" sigma="0.0" length="4.3" width="1.85" minGap="2.5" maxSpeed="13.89" guiShape="passenger/hatchback"/>
    <vType id="support_car" accel="1.8" decel="50.0" emergencyDecel="50.0" sigma="0.0" length="5.0" width="2.0" minGap="2.5" maxSpeed="13.89" guiShape="passenger/van"/>

    <route id="main_route" edges="560761994 1331698336 135424828"/>
    <route id="ramp_route" edges="34126779 1331698336 135424828"/>

    <vehicle id="Lead_Car" type="lead_car" route="main_route" depart="0.0" departLane="0" departPos="190" departSpeed="8.5" color="236,240,244"/>
    <vehicle id="Main_Front_Left" type="main_car" route="main_route" depart="0.0" departLane="0" departPos="164" departSpeed="8.3" color="54,132,245"/>
    <vehicle id="Main_Mid_Right" type="main_car" route="main_route" depart="0.0" departLane="0" departPos="126" departSpeed="8.2" color="20,184,166"/>
    <vehicle id="Host_Car" type="host_car" route="main_route" depart="0.0" departLane="0" departPos="84" departSpeed="8.0" color="58,200,125"/>
    <vehicle id="Main_Back_Left" type="main_car" route="main_route" depart="0.0" departLane="0" departPos="54" departSpeed="8.1" color="96,112,255"/>
    <vehicle id="Main_Back_Right" type="support_car" route="main_route" depart="0.0" departLane="0" departPos="24" departSpeed="8.0" color="105,190,120"/>

    <vehicle id="Merge_Car" type="merge_car" route="ramp_route" depart="0.0" departLane="0" departPos="130" departSpeed="9.0" color="240,80,80"/>
    <vehicle id="Ramp_Merge_2" type="ramp_car" route="ramp_route" depart="0.0" departLane="0" departPos="95" departSpeed="8.5" color="245,158,50"/>
    <vehicle id="Ramp_Merge_3" type="ramp_car" route="ramp_route" depart="0.0" departLane="0" departPos="65" departSpeed="8.0" color="240,105,70"/>
    <vehicle id="Ramp_Merge_4" type="ramp_car" route="ramp_route" depart="0.0" departLane="0" departPos="35" departSpeed="8.0" color="220,90,130"/>
    <vehicle id="Ramp_Merge_5" type="ramp_car" route="ramp_route" depart="0.0" departLane="0" departPos="10" departSpeed="8.0" color="168,85,247"/>
    <vehicle id="Ramp_Back" type="support_car" route="ramp_route" depart="1.0" departLane="0" departPos="0" departSpeed="8.0" color="14,165,233"/>
</routes>
