<configuration>
    <input>
        <net-file value="../aveiro.net.xml"/>
        <route-files value="ramp-platoon.rou.xml"/>
        <additional-files value="../aveiro.poly.xml"/>
    </input>

    <time>
        <begin value="0"/>
        <end value="120"/>
        <step-length value="0.1"/>
    </time>
</configuration>
