<routes>
    <vType id="lead_car" accel="2.0" decel="4.5" sigma="0.0" length="4.6" width="1.85" minGap="2.5" maxSpeed="13.89" guiShape="passenger/sedan"/>
    <vType id="host_car" accel="1.9" decel="4.5" sigma="0.0" length="4.6" width="1.85" minGap="2.5" maxSpeed="13.89" guiShape="passenger/sedan"/>
    <vType id="main_car" accel="1.9" decel="4.5" sigma="0.0" length="4.4" width="1.8" minGap="2.5" maxSpeed="13.89" guiShape="passenger/hatchback"/>
    <vType id="merge_car" accel="2.0" decel="4.5" sigma="0.0" length="4.5" width="1.85" minGap="2.5" maxSpeed="13.89" guiShape="passenger/sedan"/>
    <vType id="ramp_car" accel="1.9" decel="4.5" sigma="0.0" length="4.3" width="1.8" minGap="2.5" maxSpeed="13.89" guiShape="passenger/hatchback"/>

    <route id="main_single_route" edges="-251663459#1 111762619#0"/>
    <route id="ramp_single_route" edges="1042215851 111762619#0"/>

    <!-- One-lane merge: no adjacent lane exists, so vehicles can only negotiate speed. -->
    <vehicle id="Lead_Car" type="lead_car" route="main_single_route" depart="0" departLane="0" departPos="210" departSpeed="10.8" color="236,240,244"/>
    <vehicle id="Host_Car" type="host_car" route="main_single_route" depart="0" departLane="0" departPos="182" departSpeed="10.4" color="58,200,125"/>
    <vehicle id="Main_Merge_3" type="main_car" route="main_single_route" depart="0" departLane="0" departPos="120" departSpeed="10.4" color="96,112,255"/>
    <vehicle id="Main_Back" type="main_car" route="main_single_route" depart="0" departLane="0" departPos="70" departSpeed="10.2" color="148,163,184"/>

    <vehicle id="Merge_Car" type="merge_car" route="ramp_single_route" depart="0" departLane="0" departPos="124" departSpeed="10.8" color="240,80,80"/>
    <vehicle id="Ramp_Merge_2" type="ramp_car" route="ramp_single_route" depart="0" departLane="0" departPos="100" departSpeed="10.5" color="245,158,50"/>
    <vehicle id="Ramp_Merge_3" type="ramp_car" route="ramp_single_route" depart="0" departLane="0" departPos="76" departSpeed="10.5" color="240,105,70"/>
    <vehicle id="Ramp_Merge_4" type="ramp_car" route="ramp_single_route" depart="0" departLane="0" departPos="52" departSpeed="10.5" color="220,90,130"/>
    <vehicle id="Ramp_Merge_5" type="ramp_car" route="ramp_single_route" depart="0" departLane="0" departPos="28" departSpeed="10.5" color="168,85,247"/>
    <vehicle id="Ramp_Back" type="ramp_car" route="ramp_single_route" depart="0" departLane="0" departPos="8" departSpeed="10.2" color="14,165,233"/>
</routes>
