<routes>
    <vType id="lead_car" accel="2.0" decel="4.5" sigma="0.0" length="4.6" width="1.85" minGap="2.5" maxSpeed="13.89" guiShape="passenger/sedan"/>
    <vType id="host_car" accel="1.9" decel="4.5" sigma="0.0" length="4.6" width="1.85" minGap="2.5" maxSpeed="13.89" guiShape="passenger/sedan"/>
    <vType id="main_car" accel="1.9" decel="4.5" sigma="0.0" length="4.4" width="1.8" minGap="2.5" maxSpeed="13.89" guiShape="passenger/hatchback"/>
    <vType id="merge_car" accel="2.0" decel="4.5" sigma="0.0" length="4.5" width="1.85" minGap="2.5" maxSpeed="13.89" guiShape="passenger/sedan"/>
    <vType id="ramp_car" accel="1.9" decel="4.5" sigma="0.0" length="4.3" width="1.8" minGap="2.5" maxSpeed="13.89" guiShape="passenger/hatchback"/>

    <route id="main_single_route" edges="-251663459#1 111762619#0"/>
    <route id="ramp_single_route" edges="1042215851 111762619#0"/>

    <!-- Vehicles are sorted by depart time. SUMO ignores out-of-order vehicles in route files. -->
    <vehicle id="Lead_Car" type="lead_car" route="main_single_route" depart="0" departLane="0" departPos="80" departSpeed="8.5" color="236,240,244"/>
    <vehicle id="Merge_Car" type="merge_car" route="ramp_single_route" depart="5" departLane="0" departPos="40" departSpeed="8.0" color="240,80,80"/>
    <vehicle id="Main_Front" type="main_car" route="main_single_route" depart="14" departLane="0" departPos="40" departSpeed="8.3" color="100,180,255"/>
    <vehicle id="Ramp_Merge_2" type="ramp_car" route="ramp_single_route" depart="22" departLane="0" departPos="0" departSpeed="4.0" color="245,158,50"/>
    <vehicle id="Host_Car" type="host_car" route="main_single_route" depart="28" departLane="0" departPos="40" departSpeed="8.1" color="58,200,125"/>
    <vehicle id="Ramp_Merge_3" type="ramp_car" route="ramp_single_route" depart="38" departLane="0" departPos="0" departSpeed="3.8" color="240,105,70"/>
    <vehicle id="Main_Mid" type="main_car" route="main_single_route" depart="42" departLane="0" departPos="40" departSpeed="8.0" color="96,112,255"/>
    <vehicle id="Ramp_Merge_4" type="ramp_car" route="ramp_single_route" depart="54" departLane="0" departPos="0" departSpeed="3.6" color="220,90,130"/>
    <vehicle id="Main_Back" type="main_car" route="main_single_route" depart="56" departLane="0" departPos="40" departSpeed="7.8" color="148,163,184"/>
    <vehicle id="Ramp_Merge_5" type="ramp_car" route="ramp_single_route" depart="70" departLane="0" departPos="0" departSpeed="3.4" color="168,85,247"/>
    <vehicle id="Main_Tail" type="main_car" route="main_single_route" depart="72" departLane="0" departPos="40" departSpeed="7.6" color="180,140,200"/>
    <vehicle id="Ramp_Merge_6" type="ramp_car" route="ramp_single_route" depart="86" departLane="0" departPos="0" departSpeed="3.2" color="255,160,180"/>
    <vehicle id="Ramp_Merge_7" type="ramp_car" route="ramp_single_route" depart="100" departLane="0" departPos="0" departSpeed="3.0" color="120,220,160"/>
    <vehicle id="Ramp_Back" type="ramp_car" route="ramp_single_route" depart="114" departLane="0" departPos="0" departSpeed="2.8" color="14,165,233"/>
</routes>
