<?xml version="1.0" encoding="UTF-8"?>

<!-- generated on 2026-05-06T15:43:37.538296+00:00 by Eclipse SUMO polyconvert 1.26.0
<polyconvertConfiguration xmlns:xsi="http://www.w3.org/2001/XMLSchema-instance" xsi:noNamespaceSchemaLocation="http://sumo.dlr.de/xsd/polyconvertConfiguration.xsd">

    <input>
        <net-file value="aveiro_map/aveiro.net.xml"/>
        <osm-files value="aveiro_map/aveiro.osm"/>
        <osm.merge-relations value="1"/>
        <type-file value="/usr/share/sumo/data/typemap/osmPolyconvert.typ.xml"/>
    </input>

    <output>
        <output-file value="aveiro_map/aveiro.poly.xml"/>
    </output>

    <report>
        <verbose value="true"/>
    </report>

</polyconvertConfiguration>
-->

<additional xmlns:xsi="http://www.w3.org/2001/XMLSchema-instance" xsi:noNamespaceSchemaLocation="http://sumo.dlr.de/xsd/additional_file.xsd">
    <location netOffset="-528462.54,-4496843.55" convBoundary="-2849.77,-3322.87,4277.72,3653.98" origBoundary="-8.697139,40.591838,-8.613083,40.654767" projParameter="+proj=utm +zone=29 +ellps=WGS84 +datum=WGS84 +units=m +no_defs"/>

    <poly id="1021962586" type="parking" color="184,184,179" fill="1" layer="-1.00" shape="2217.831557,2354.226952 2185.928562,2368.659254 2176.214383,2374.524688 2173.695680,2380.430870 2174.141475,2385.106009 2171.623330,2388.825399 2181.571934,2422.511947 2186.615195,2431.846033 2222.591753,2432.171983 2217.831557,2354.226952"/>
    <poly id="1026723456" type="building" color="255,230,230" fill="1" layer="-1.00" shape="1827.481270,2298.390079 1830.860647,2301.167861 1836.036283,2294.739565 1832.622903,2292.006045 1829.750357,2295.579799 1827.481270,2298.390079"/>
    <poly id="1042215852" type="landuse" color="194,194,130" fill="1" layer="-3.00" shape="1637.862818,409.266053 1635.314317,412.030856 1631.974845,413.793422 1628.242715,414.355554 1624.541119,413.641261 1621.275661,411.740986 1618.834490,408.878305 1617.528520,405.553995 1617.348397,401.990026 1618.301099,398.552740 1620.300661,395.585904 1623.142845,393.399506 1626.522233,392.225421 1630.108530,392.173318 1633.521096,393.252760 1636.422074,395.351375 1638.583244,398.434937 1639.600435,402.057795 1639.356904,405.808759 1637.862818,409.266053"/>
    <poly id="1042215853" type="building" color="255,230,230" fill="1" layer="-1.00" shape="1647.680251,334.499901 1647.289701,339.049501 1655.879866,339.783587 1657.538584,320.730845 1642.066169,319.391694 1641.489524,326.038524 1643.324213,326.201352 1642.641181,334.057700 1647.680251,334.499901"/>
    <poly id="1042215854" type="building" color="255,230,230" fill="1" layer="-1.00" shape="1641.543354,346.186039 1642.128006,339.650245 1651.326809,340.464491 1650.750607,347.000318 1641.543354,346.186039"/>
    <poly id="1042215855" type="building" color="255,230,230" fill="1" layer="-1.00" shape="1660.776892,337.705423 1675.972456,338.477371 1676.790099,322.451647 1666.879572,321.945301 1666.649796,326.473350 1661.364730,326.207747 1660.776892,337.705423"/>
    <poly id="1042215856" type="building" color="255,230,230" fill="1" layer="-1.00" shape="1673.184758,352.263929 1673.514000,346.148920 1678.705927,346.436356 1678.448562,349.421332 1678.173787,352.528342 1673.184758,352.263929"/>
    <poly id="1042215857" type="building" color="255,230,230" fill="1" layer="-1.00" shape="1682.948528,328.437525 1688.064078,328.791260 1688.189591,327.037899 1698.868905,327.758297 1697.727438,344.371030 1683.978959,343.405092 1681.932878,343.230298 1682.948528,328.437525"/>
    <poly id="1042215858" type="building" color="255,230,230" fill="1" layer="-1.00" shape="1678.448562,349.421332 1683.428506,349.841117 1683.978959,343.405092 1681.932878,343.230298 1679.007469,342.985340 1678.705927,346.436356 1678.448562,349.421332"/>
    <poly id="1042215859" type="building" color="255,230,230" fill="1" layer="-1.00" shape="1706.593775,341.654057 1704.454080,331.188769 1706.053931,330.862241 1705.282800,327.051664 1708.854914,326.333515 1708.572887,324.967018 1717.122310,323.236711 1718.648276,330.702395 1720.315137,338.879079 1712.916965,340.369840 1706.593775,341.654057"/>
    <poly id="1042215860" type="building" color="255,230,230" fill="1" layer="-1.00" shape="1720.315137,338.879079 1722.074843,349.187425 1698.750054,354.998296 1699.475522,347.119923 1713.410383,343.835178 1712.916965,340.369840 1720.315137,338.879079"/>
    <poly id="1042215861" type="building" color="255,230,230" fill="1" layer="-1.00" shape="1718.648276,330.702395 1721.119765,330.257300 1719.687511,322.625489 1717.122310,323.236711 1718.648276,330.702395"/>
    <poly id="1042215862" type="building" color="255,230,230" fill="1" layer="-1.00" shape="1726.895649,328.371451 1723.808350,320.078000 1725.968304,319.287529 1725.499760,318.031279 1750.767463,308.676237 1751.554016,310.766313 1754.654268,309.613353 1757.440441,317.073061 1726.895649,328.371451"/>
    <poly id="1042215863" type="building" color="255,230,230" fill="1" layer="-1.00" shape="1761.784272,317.934334 1769.586346,314.880100 1769.033729,313.501401 1777.259418,310.271288 1777.753371,311.516545 1785.699511,308.396310 1782.627063,300.624616 1779.458735,301.877191 1778.010389,298.219261 1759.839326,305.349637 1761.187224,308.751845 1758.561098,309.784622 1761.784272,317.934334"/>
    <poly id="1042217039" type="landuse" color="194,194,130" fill="1" layer="-3.00" shape="1612.103736,1373.124866 1641.774358,1367.772336 1653.445707,1363.301685 1667.908193,1350.372705 1671.518564,1337.999217 1670.188247,1324.029454 1665.721964,1305.518006 1661.258040,1286.418247 1661.348823,1263.995693 1667.190244,1235.302468 1674.842371,1200.122815 1677.280346,1182.827082 1678.949393,1161.199057 1635.642765,1175.576443 1643.626031,1202.749352 1590.051698,1217.485078 1586.710982,1219.647274 1592.659519,1229.273194 1606.245783,1349.490517 1612.103736,1373.124866"/>
    <poly id="1046230372" type="leisure" color="207,245,201" fill="1" layer="-2.00" shape="413.813227,330.109809 463.004743,234.115675 526.102642,266.208280 476.910559,362.190904 413.813227,330.109809"/>
    <poly id="1046230372#1" type="sport" color="79,230,125" fill="1" layer="-2.00" shape="413.813227,330.109809 463.004743,234.115675 526.102642,266.208280 476.910559,362.190904 413.813227,330.109809"/>
    <poly id="1047736607" type="building" color="255,230,230" fill="1" layer="-1.00" shape="1675.917765,1550.502024 1675.120890,1546.813443 1677.440524,1546.179013 1678.194937,1549.911824 1675.917765,1550.502024"/>
    <poly id="1047736608" type="building" color="255,230,230" fill="1" layer="-1.00" shape="1671.989994,1549.398268 1674.664702,1548.787477 1673.609008,1544.276413 1670.959397,1544.953909 1671.989994,1549.398268"/>
    <poly id="1047817446" type="building" color="255,230,230" fill="1" layer="-1.00" shape="890.277518,1693.020929 899.851738,1684.011843 897.991474,1681.839912 896.124505,1679.223938 896.581793,1676.916849 897.867783,1674.613030 898.914287,1675.138881 903.434210,1667.630615 902.463505,1667.182766 903.962962,1664.358069 890.912465,1656.403042 882.090966,1671.808969 881.309920,1683.305956 882.631886,1684.743129 887.768277,1690.302518 890.277518,1693.020929"/>
    <poly id="1047817448" type="parking" color="184,184,179" fill="1" layer="-1.00" shape="1020.490829,1555.501713 1055.921522,1519.698946 1085.294344,1533.713313 1044.192074,1579.483853 1020.490829,1555.501713"/>
    <poly id="1049331743" type="building" color="255,230,230" fill="1" layer="-1.00" shape="2091.437825,2138.213055 2132.492331,2137.793483 2132.261145,2115.880190 2125.420108,2115.951959 2118.579072,2116.023734 2111.738035,2116.095516 2104.897045,2116.156204 2098.056009,2116.227998 2091.214973,2116.299799 2091.437825,2138.213055"/>
    <poly id="1049331744" type="building" color="255,230,230" fill="1" layer="-1.00" shape="2055.737724,2164.962951 2056.055575,2165.807891 2056.799971,2167.797931 2058.230255,2171.611263 2061.433626,2180.182877 2064.503295,2188.365426 2088.440936,2252.302560 2119.875495,2240.820641 2087.581453,2154.814630 2087.263650,2153.958588 2068.397208,2160.541411 2055.737724,2164.962951"/>
    <poly id="1049331745" type="building" color="255,230,230" fill="1" layer="-1.00" shape="2068.397208,2160.541411 2081.506107,2161.993890 2091.193863,2158.492625 2090.032480,2200.381058 2067.725893,2200.489274 2068.397208,2160.541411"/>
    <poly id="1049331746" type="building" color="255,230,230" fill="1" layer="-1.00" shape="2085.104252,2208.264357 2106.572120,2208.541264 2106.104704,2246.147765 2084.628443,2245.881925 2085.104252,2208.264357"/>
    <poly id="1049331747" type="parking" color="184,184,179" fill="1" layer="-1.00" shape="2046.553483,2107.558012 2046.805124,2112.176842 2209.095406,2108.548389 2209.705212,2102.157028 2046.553483,2107.558012"/>
    <poly id="1051080693" type="tourism" color="207,245,201" fill="1" layer="-2.00" shape="479.584168,2244.602809 504.562816,2209.678106 508.235713,2204.530699 542.286386,2156.909240 543.731283,2155.005596 550.029270,2146.727018 586.202902,2153.228762 590.056012,2153.920939 648.258153,2164.383119 651.316948,2164.939013 653.463191,2165.324830 692.044835,2172.258335 652.807767,2188.033800 609.911390,2205.504639 608.624064,2206.032429 589.907266,2213.651916 590.026945,2215.483959 590.178538,2217.804547 591.303778,2234.959149 593.520635,2267.048132 585.106185,2271.666358 577.282306,2287.453960 575.004761,2290.386690 479.584168,2244.602809"/>
    <poly id="1077152280" type="commercial" color="209,209,204" fill="1" layer="-3.00" shape="890.400015,2092.715527 879.365247,2101.274846 877.197713,2104.141315 874.758198,2107.361926 865.935225,2118.993716 847.287971,2136.736451"/>
    <poly id="1078577879" type="building" color="255,230,230" fill="1" layer="-1.00" shape="455.572162,712.470716 463.881530,709.206183 464.819248,711.651923 466.578182,711.703162 469.558189,719.629354 467.236722,720.697070 473.177055,728.557070 469.327204,731.184003 461.338882,721.484476 459.983306,717.749463 458.477573,717.832414 458.011949,715.777025 456.936198,716.205761 455.572162,712.470716"/>
    <poly id="1078577880" type="building" color="255,230,230" fill="1" layer="-1.00" shape="469.327204,731.184003 473.727669,737.028839 482.057263,730.733988 478.010925,725.168035 473.177055,728.557070 469.327204,731.184003"/>
    <poly id="1078577881" type="building" color="255,230,230" fill="1" layer="-1.00" shape="473.727669,737.028839 495.053758,763.963737 501.811382,757.385281 495.196644,748.978712 491.387873,751.916606 486.608108,745.748372 491.205603,742.247422 482.057263,730.733988 473.727669,737.028839"/>
    <poly id="1078577882" type="building" color="255,230,230" fill="1" layer="-1.00" shape="499.643584,738.528312 519.742523,728.738281 512.927715,717.411505 512.238717,716.254377 486.630462,716.088109 486.591687,710.837455 482.287209,710.754109 482.265399,701.141052 515.360146,700.881336 522.960633,705.917230 535.827880,731.043233 533.597665,736.906670 507.867763,750.626493 499.643584,738.528312"/>
    <poly id="1078577883" type="building" color="255,230,230" fill="1" layer="-1.00" shape="499.643584,738.528312 489.796506,724.015033 499.724156,717.826323 503.548834,721.670858 512.927715,717.411505 519.742523,728.738281 499.643584,738.528312"/>
    <poly id="1078577884" type="building" color="255,230,230" fill="1" layer="-1.00" shape="460.502598,701.644758 473.150380,698.441501 486.681495,720.361973 478.010925,725.168035 460.502598,701.644758"/>
    <poly id="1079518944" type="building" color="255,230,230" fill="1" layer="-1.00" shape="1766.102976,2094.291279 1777.688829,2087.711390 1789.130641,2081.208637 1775.428011,2057.275807 1766.011782,2062.632364 1752.400297,2070.358491 1766.102976,2094.291279"/>
    <poly id="1079518945" type="building" color="255,230,230" fill="1" layer="-1.00" shape="1752.400297,2070.358491 1744.339753,2056.305859 1736.321096,2042.342209 1732.416755,2035.532871 1746.087608,2027.773647 1766.011782,2062.632364 1752.400297,2070.358491"/>
    <poly id="1079812572" type="building" color="255,230,230" fill="1" layer="-1.00" shape="1445.278677,2187.370574 1465.949448,2192.426728 1471.997825,2156.074831 1464.589360,2154.280045 1457.180891,2152.485266 1445.278677,2187.370574"/>
    <poly id="1079812573" type="building" color="255,230,230" fill="1" layer="-1.00" shape="1482.249037,2209.975570 1494.395045,2209.069838 1496.144911,2232.276868 1491.924265,2232.592884 1483.998941,2233.182597 1482.249037,2209.975570"/>
    <poly id="1079812574" type="building" color="255,230,230" fill="1" layer="-1.00" shape="1410.993820,2188.720260 1405.879885,2196.703160 1398.749384,2207.819400 1408.743842,2214.175698 1420.988293,2195.076574 1410.993820,2188.720260"/>
    <poly id="1079812575" type="building" color="255,230,230" fill="1" layer="-1.00" shape="1447.967114,2208.516677 1450.923520,2209.283398 1453.888425,2210.039054 1455.494615,2203.829252 1449.573300,2202.306874 1447.967114,2208.516677"/>
    <poly id="1079818086" type="building" color="255,230,230" fill="1" layer="-1.00" shape="1724.915345,1550.256660 1729.379607,1548.354396 1719.921342,1526.403707 1715.448569,1528.317043 1724.915345,1550.256660"/>
    <poly id="1079818087" type="building" color="255,230,230" fill="1" layer="-1.00" shape="1735.874118,1544.195882 1740.558160,1542.316717 1732.179267,1521.125226 1727.317316,1523.081377 1735.874118,1544.195882"/>
    <poly id="1079818088" type="amenity" color="237,199,199" fill="1" layer="-1.00" shape="1742.223930,1546.519455 1748.847395,1543.926640 1738.643748,1518.121040 1732.020219,1520.724964 1732.179267,1521.125226 1740.558160,1542.316717 1742.223930,1546.519455"/>
    <poly id="1079818088#1" type="building" color="255,230,230" fill="1" layer="-1.00" shape="1742.223930,1546.519455 1748.847395,1543.926640 1738.643748,1518.121040 1732.020219,1520.724964 1732.179267,1521.125226 1740.558160,1542.316717 1742.223930,1546.519455"/>
    <poly id="1079818091" type="landuse" color="194,194,130" fill="1" layer="-3.00" shape="1618.402529,1398.570377 1680.484870,1383.369807 1693.367695,1384.620862 1702.116907,1389.629335 1712.211791,1400.626424 1719.204052,1415.551602 1731.807900,1443.853413 1751.233138,1485.370294 1715.369154,1512.454162 1660.404840,1541.003804 1618.402529,1398.570377"/>
    <poly id="1079818092" type="landuse" color="194,194,130" fill="1" layer="-3.00" shape="1732.414954,1508.893475 1760.269991,1546.515040 1760.466957,1529.254622 1758.202563,1510.041625 1755.388073,1497.175859 1750.834830,1495.991818 1732.414954,1508.893475"/>
    <poly id="1082472623" type="building" color="255,230,230" fill="1" layer="-1.00" shape="1204.894269,1444.542027 1191.066948,1436.272567 1186.103942,1444.511523 1199.939710,1452.781008 1203.506667,1446.845388 1204.894269,1444.542027"/>
    <poly id="1082472624" type="building" color="255,230,230" fill="1" layer="-1.00" shape="1199.939710,1452.781008 1198.048979,1456.136907 1190.716033,1469.150708 1175.789145,1460.943496 1178.131326,1456.767956 1177.565986,1456.454891 1181.815938,1448.890215 1182.752565,1449.404568 1186.103942,1444.511523 1199.939710,1452.781008"/>
    <poly id="1082472625" type="building" color="255,230,230" fill="1" layer="-1.00" shape="1190.716033,1469.150708 1181.694863,1485.643331 1166.195264,1476.856632 1168.205160,1473.301392 1171.006400,1474.888813 1176.107679,1465.895566 1174.006681,1464.721649 1175.789145,1460.943496 1190.716033,1469.150708"/>
    <poly id="1082472626" type="building" color="255,230,230" fill="1" layer="-1.00" shape="1181.694863,1485.643331 1174.413994,1498.335442 1158.610957,1489.303340 1164.145961,1479.690187 1165.057172,1480.215537 1166.195264,1476.856632 1181.694863,1485.643331"/>
    <poly id="1084609751" type="building" color="255,230,230" fill="1" layer="-1.00" shape="1097.590439,1710.248278 1104.862135,1695.524671 1089.186092,1688.668904 1082.115781,1703.792943 1094.745449,1709.049225 1097.590439,1710.248278"/>
    <poly id="1084609752" type="building" color="255,230,230" fill="1" layer="-1.00" shape="1097.590439,1710.248278 1094.301274,1718.682656 1085.537651,1713.042112 1087.327499,1709.508176 1092.948685,1712.194616 1094.745449,1709.049225 1097.590439,1710.248278"/>
    <poly id="1084609753" type="building" color="255,230,230" fill="1" layer="-1.00" shape="1080.747664,1675.658956 1090.894616,1682.193025 1095.463306,1675.228990 1084.924632,1669.381587 1080.747664,1675.658956"/>
    <poly id="1084689450" type="building" color="255,230,230" fill="1" layer="-1.00" shape="1017.362976,1642.738875 1024.056150,1635.272595 1034.503747,1623.591934 1027.491326,1617.725295 1009.190290,1635.180387 1017.362976,1642.738875"/>
    <poly id="1084689451" type="building" color="255,230,230" fill="1" layer="-1.00" shape="1013.514028,1647.341413 1017.362976,1642.738875 1024.056150,1635.272595 1028.330020,1638.675174 1018.558914,1652.500913 1013.514028,1647.341413"/>
    <poly id="1084689452" type="building" color="255,230,230" fill="1" layer="-1.00" shape="1018.558914,1652.500913 1021.640984,1655.765560 1030.971182,1642.237790 1032.536142,1639.968401 1028.933490,1637.900535 1028.330020,1638.675174 1018.558914,1652.500913"/>
    <poly id="1084689453" type="building" color="255,230,230" fill="1" layer="-1.00" shape="1021.640984,1655.765560 1026.526863,1660.502619 1029.836291,1655.476132 1036.208389,1645.810700 1030.971182,1642.237790 1021.640984,1655.765560"/>
    <poly id="1084689454" type="building" color="255,230,230" fill="1" layer="-1.00" shape="1029.836291,1655.476132 1056.258388,1682.022208 1058.058006,1680.286578 1066.444841,1672.216531 1039.475205,1645.135426 1029.836291,1655.476132"/>
    <poly id="1084689456" type="building" color="255,230,230" fill="1" layer="-1.00" shape="1058.058006,1680.286578 1066.199629,1689.254756 1076.819068,1679.017894 1068.252126,1670.680742 1066.444841,1672.216531 1058.058006,1680.286578"/>
    <poly id="1092110072" type="building" color="255,230,230" fill="1" layer="-1.00" shape="2159.914621,2063.799540 2159.187535,2028.852247 2177.375559,2018.736906 2178.316133,2063.420199 2159.914621,2063.799540"/>
    <poly id="1092110073" type="building" color="255,230,230" fill="1" layer="-1.00" shape="2103.390424,2295.533745 2095.398176,2273.311046 2129.947793,2260.987231 2137.939952,2283.209967 2103.390424,2295.533745"/>
    <poly id="1092110074" type="building" color="255,230,230" fill="1" layer="-1.00" shape="2128.385174,2361.318049 2120.231554,2339.305565 2159.473938,2324.880994 2167.635960,2346.882456 2128.385174,2361.318049"/>
    <poly id="1092110076" type="building" color="255,230,230" fill="1" layer="-1.00" shape="385.282396,1833.708467 379.942531,1828.215241 416.568077,1792.802602 427.744804,1804.279461 391.441835,1839.371383 387.306360,1835.126073 388.927520,1833.567198 387.234586,1831.828962 385.282396,1833.708467"/>
    <poly id="1092399409" type="building" color="255,230,230" fill="1" layer="-1.00" shape="2016.195071,1909.945026 2018.018500,1908.631541 2057.430343,1880.198320 2078.921639,1864.701462 2066.905704,1848.179038 2062.359781,1851.457223 2046.542349,1862.870222 2044.507437,1860.075658 2002.152609,1890.628185 2003.304613,1892.209169 2006.970793,1897.252699 2016.195071,1909.945026"/>
    <poly id="1092399410" type="building" color="255,230,230" fill="1" layer="-1.00" shape="2090.080249,1857.298867 2091.377794,1856.382858 2092.395517,1855.654407 2105.668035,1846.229132 2100.741026,1839.348795 2093.443009,1829.150782 2079.152752,1839.304531 2077.863662,1840.220578 2090.080249,1857.298867"/>
    <poly id="1092399411" type="building" color="255,230,230" fill="1" layer="-1.00" shape="2100.741026,1839.348795 2116.015903,1828.299996 2111.323834,1821.864638 2101.863978,1808.893714 2086.868951,1819.743883 2093.443009,1829.150782 2100.741026,1839.348795"/>
    <poly id="1092399412" type="building" color="255,230,230" fill="1" layer="-1.00" shape="2111.323834,1821.864638 2139.796168,1801.179428 2131.328348,1789.622308 2130.344516,1788.275105 2101.863978,1808.893714 2111.323834,1821.864638"/>
    <poly id="1092399413" type="building" color="255,230,230" fill="1" layer="-1.00" shape="2105.349760,1882.526369 2154.824651,1847.974256 2146.695102,1836.429610 2146.148661,1835.650329 2143.112653,1837.769128 2096.682139,1870.213634 2105.349760,1882.526369"/>
    <poly id="1092399414" type="building" color="255,230,230" fill="1" layer="-1.00" shape="2016.195071,1909.945026 2010.716192,1918.048125 2007.307558,1926.514923 2008.125955,1933.156357 2010.963980,1940.127979 1999.648366,1944.621725 1999.162700,1943.454187 1996.147864,1936.293137 1995.179247,1925.033293 1992.063484,1923.932689 1993.433421,1919.786722 1993.869988,1918.489754 1996.969379,1909.133646 2004.956924,1899.642152 2005.798150,1898.646555 2006.970793,1897.252699 2016.195071,1909.945026"/>
    <poly id="1092402378" type="building" color="255,230,230" fill="1" layer="-1.00" shape="2080.853336,1907.046596 2067.656787,1916.538830 2057.743684,1902.755765 2071.311667,1893.420446 2080.853336,1907.046596"/>
    <poly id="1092402379" type="building" color="255,230,230" fill="1" layer="-1.00" shape="2067.656787,1916.538830 2055.162563,1925.922963 2051.269488,1920.545464 2044.795109,1911.583028 2057.743684,1902.755765 2067.656787,1916.538830"/>
    <poly id="1092402380" type="building" color="255,230,230" fill="1" layer="-1.00" shape="2093.593320,1940.777753 2108.912723,1929.129697 2097.877589,1914.731441 2088.572261,1921.808622 2092.197366,1926.541212 2087.184173,1930.361386 2088.664473,1932.298948 2087.672037,1933.049704 2093.593320,1940.777753"/>
    <poly id="1092402381" type="building" color="255,230,230" fill="1" layer="-1.00" shape="2080.016365,1944.074338 2036.963627,1963.434524 2031.583539,1951.568262 2040.444873,1947.575122 2074.627920,1932.196910 2080.016365,1944.074338"/>
    <poly id="1092402382" type="building" color="255,230,230" fill="1" layer="-1.00" shape="2031.583539,1951.568262 2028.389544,1953.053733 2023.593940,1938.869875 2024.779292,1928.184977 2030.670431,1918.529512 2043.222279,1909.522991 2044.795109,1911.583028 2051.269488,1920.545464 2037.922605,1931.657802 2037.525596,1939.803921 2040.444873,1947.575122 2031.583539,1951.568262"/>
    <poly id="1092402383" type="building" color="255,230,230" fill="1" layer="-1.00" shape="2128.369783,1914.790172 2164.729755,1888.320850 2158.002674,1879.146366 2131.803431,1898.220185 2127.313084,1892.096458 2117.152285,1899.503099 2128.369783,1914.790172"/>
    <poly id="1098311057" type="building" color="255,230,230" fill="1" layer="-1.00" shape="397.137437,2136.763453 398.886989,2139.145739 397.300750,2140.438337 400.624308,2144.680506 401.879873,2143.619734 403.235326,2145.145757 402.039337,2146.106855 409.821567,2156.238472 411.415141,2155.234516 412.660451,2156.815615 411.064852,2158.341284 418.909307,2167.685019 421.579584,2165.952617 429.707109,2176.429710 431.072855,2175.302769 432.815269,2177.340921 435.943700,2175.210687 436.566350,2176.001238 441.569634,2172.290927 440.898019,2171.045066 443.569422,2169.024064 441.592453,2166.418875 442.272178,2165.577882 434.607560,2155.657596 433.183699,2156.506799 429.573796,2151.974892 428.488201,2152.814309 418.111145,2140.230498 421.011932,2137.932867 412.317911,2127.431384 409.840378,2129.608556 408.216067,2127.637471 397.137437,2136.763453"/>
    <poly id="1098311947" type="parking" color="184,184,179" fill="1" layer="-1.00" shape="448.834182,2182.886793 452.090696,2184.786529 459.168454,2176.000285 446.832243,2167.127466 436.546425,2181.129571 444.180772,2185.777026 447.121670,2181.858895 448.834182,2182.886793"/>
    <poly id="1105318516" type="amenity" color="237,199,199" fill="1" layer="-1.00" shape="844.947343,1831.564570 851.761388,1821.234695 854.177104,1817.636567 851.048244,1815.515151 855.476826,1809.693764 857.261860,1807.347503 856.553569,1806.834091 857.335983,1805.704928 850.564841,1800.849546 834.176671,1826.660145 839.562009,1829.112355 844.947343,1831.564570"/>
    <poly id="1105318516#1" type="building" color="255,230,230" fill="1" layer="-1.00" shape="844.947343,1831.564570 851.761388,1821.234695 854.177104,1817.636567 851.048244,1815.515151 855.476826,1809.693764 857.261860,1807.347503 856.553569,1806.834091 857.335983,1805.704928 850.564841,1800.849546 834.176671,1826.660145 839.562009,1829.112355 844.947343,1831.564570"/>
    <poly id="111719965" type="building" color="255,230,230" fill="1" layer="-1.00" shape="1394.832113,741.799800 1412.177358,744.100604 1413.406680,734.925472 1396.516991,732.904006 1394.832113,741.799800"/>
    <poly id="111720301" type="parking" color="184,184,179" fill="1" layer="-1.00" shape="1333.417524,764.365050 1338.050017,764.894221 1347.347383,683.975937 1342.714840,683.446761 1333.417524,764.365050"/>
    <poly id="111720317" type="parking" color="184,184,179" fill="1" layer="-1.00" shape="1320.742643,763.703786 1325.375138,764.232948 1334.470827,685.067712 1329.829826,684.538510 1320.742643,763.703786"/>
    <poly id="111720718" type="commercial" color="209,209,204" fill="1" layer="-3.00" shape="1337.212405,936.037511 1368.021497,938.203441 1464.743747,944.985679 1477.685269,946.558502 1591.122376,849.798073 1584.608441,843.977334 1589.366068,838.635030 1461.404499,721.731192 1453.087844,720.387902 1437.710759,775.506405 1398.156485,766.933442 1392.649170,765.224077 1389.650564,764.290711 1388.918252,769.749191 1387.044167,783.650529 1386.146186,790.351595 1353.373128,786.390556 1342.358722,899.049239 1337.212405,936.037511"/>
    <poly id="111761868" type="building" color="255,230,230" fill="1" layer="-1.00" shape="1523.805862,557.307312 1512.658718,546.827989 1521.339248,537.671793 1523.624007,535.272203 1516.302028,528.404832 1518.909603,525.651327 1549.869638,492.896613 1557.688732,500.232240 1560.839984,496.892619 1565.188852,492.292382 1567.745533,489.583090 1568.365574,488.930666 1571.814103,485.281437 1573.529866,483.467889 1580.155087,476.468052 1583.833101,472.542244 1585.982041,470.275330 1589.642877,466.416058 1591.367107,464.602549 1591.672878,464.281871 1593.592484,462.258242 1594.985437,460.798610 1600.489460,454.993110 1605.050757,450.160645 1609.713865,445.250890 1611.208763,443.680668 1613.068997,441.701207 1617.996073,442.631356 1618.917274,442.801586 1619.694965,442.904633 1622.543142,443.415666 1628.509866,444.505431 1633.217356,445.357000 1640.240598,446.617554 1641.280113,446.810466 1644.026437,447.409899 1648.466724,451.590528 1656.968086,459.606147 1659.360546,461.958023 1660.607543,463.128617 1677.745652,479.127140 1678.470255,479.807201 1680.863197,482.036982 1706.291396,505.961570 1726.518698,525.547075 1725.616405,537.398689 1722.439497,540.793638 1726.862949,544.929846 1731.985706,549.723820 1748.894344,565.910289 1741.742565,573.429561 1724.757226,557.387103 1705.339722,577.988491 1716.731094,588.646704 1622.601032,688.513682 1611.201134,677.877779 1589.808411,657.899359 1564.128259,633.574530 1549.914720,620.130059 1548.988929,621.103165 1547.480793,619.676226 1545.206305,617.435865 1543.613951,615.919784 1547.533885,604.413331 1540.692456,600.045472 1542.620292,598.066266 1541.761891,597.008263 1540.886754,595.905791 1527.497312,579.412066 1526.866138,578.632491 1524.787046,576.170916 1522.817451,573.820786 1522.076688,572.951967 1517.928461,563.455477 1523.805862,557.307312"/>
    <poly id="111761868#1" type="shop" color="237,199,255" fill="1" layer="-1.00" shape="1523.805862,557.307312 1512.658718,546.827989 1521.339248,537.671793 1523.624007,535.272203 1516.302028,528.404832 1518.909603,525.651327 1549.869638,492.896613 1557.688732,500.232240 1560.839984,496.892619 1565.188852,492.292382 1567.745533,489.583090 1568.365574,488.930666 1571.814103,485.281437 1573.529866,483.467889 1580.155087,476.468052 1583.833101,472.542244 1585.982041,470.275330 1589.642877,466.416058 1591.367107,464.602549 1591.672878,464.281871 1593.592484,462.258242 1594.985437,460.798610 1600.489460,454.993110 1605.050757,450.160645 1609.713865,445.250890 1611.208763,443.680668 1613.068997,441.701207 1617.996073,442.631356 1618.917274,442.801586 1619.694965,442.904633 1622.543142,443.415666 1628.509866,444.505431 1633.217356,445.357000 1640.240598,446.617554 1641.280113,446.810466 1644.026437,447.409899 1648.466724,451.590528 1656.968086,459.606147 1659.360546,461.958023 1660.607543,463.128617 1677.745652,479.127140 1678.470255,479.807201 1680.863197,482.036982 1706.291396,505.961570 1726.518698,525.547075 1725.616405,537.398689 1722.439497,540.793638 1726.862949,544.929846 1731.985706,549.723820 1748.894344,565.910289 1741.742565,573.429561 1724.757226,557.387103 1705.339722,577.988491 1716.731094,588.646704 1622.601032,688.513682 1611.201134,677.877779 1589.808411,657.899359 1564.128259,633.574530 1549.914720,620.130059 1548.988929,621.103165 1547.480793,619.676226 1545.206305,617.435865 1543.613951,615.919784 1547.533885,604.413331 1540.692456,600.045472 1542.620292,598.066266 1541.761891,597.008263 1540.886754,595.905791 1527.497312,579.412066 1526.866138,578.632491 1524.787046,576.170916 1522.817451,573.820786 1522.076688,572.951967 1517.928461,563.455477 1523.805862,557.307312"/>
    <poly id="112075248" type="parking" color="184,184,179" fill="1" layer="-1.00" shape="1453.408119,499.756816 1462.619927,507.808369 1465.391725,510.483621 1458.570315,536.864139 1454.581243,550.867957 1446.564993,544.175472 1443.694960,547.005650 1435.554109,539.746554 1432.590645,542.676265 1421.475933,532.508024 1453.408119,499.756816"/>
    <poly id="112075795" type="landuse" color="194,194,130" fill="1" layer="-3.00" shape="1178.051264,566.090170 1181.172431,555.390680 1199.472384,566.552934 1198.736729,568.636884 1178.051264,566.090170"/>
    <poly id="112075796" type="landuse" color="194,194,130" fill="1" layer="-3.00" shape="1212.692557,566.294827 1212.129894,565.293544 1229.590611,549.367459 1234.084106,559.331380 1212.692557,566.294827"/>
    <poly id="112075797" type="landuse" color="194,194,130" fill="1" layer="-3.00" shape="1182.044064,553.140764 1199.514664,564.432919 1200.532518,563.693247 1187.720858,544.205327 1182.044064,553.140764"/>