<configuration>
    <input>
        <net-file value="aveiro.net.xml"/>
        <additional-files value="aveiro.poly.xml"/>
    </input>

    <time>
        <begin value="0"/>
        <end value="3600"/>
        <step-length value="0.1"/>
    </time>
</configuration>
