<?xml version="1.0" encoding="UTF-8"?>

<!-- generated on 2026-05-06T15:42:44.754423+00:00 by Eclipse SUMO netconvert 1.26.0
<netconvertConfiguration xmlns:xsi="http://www.w3.org/2001/XMLSchema-instance" xsi:noNamespaceSchemaLocation="http://sumo.dlr.de/xsd/netconvertConfiguration.xsd">

    <input>
        <type-files value="/usr/share/sumo/data/typemap/osmNetconvert.typ.xml"/>
        <osm-files value="aveiro_map/aveiro.osm"/>
    </input>

    <output>
        <output-file value="aveiro_map/aveiro.net.xml"/>
    </output>

    <projection>
        <proj.utm value="true"/>
    </projection>

    <processing>
        <geometry.remove value="true"/>
        <roundabouts.guess value="true"/>
    </processing>

    <tls_building>
        <tls.discard-simple value="true"/>
        <tls.join value="true"/>
        <tls.guess-signals value="true"/>
    </tls_building>

    <ramp_guessing>
        <ramps.guess value="true"/>
        <ramps.guess-acceleration-lanes value="true"/>
    </ramp_guessing>

    <edge_removal>
        <keep-edges.by-vclass value="passenger"/>
        <remove-edges.isolated value="true"/>
    </edge_removal>

    <junctions>
        <no-turnarounds value="true"/>
        <junctions.join value="true"/>
    </junctions>

    <formats>
        <osm.lane-access value="true"/>
        <osm.turn-lanes value="true"/>
        <osm.all-attributes value="true"/>
    </formats>

    <report>
        <verbose value="true"/>
    </report>

</netconvertConfiguration>
-->

<net version="1.20" junctionCornerDetail="5" limitTurnSpeed="5.50" xmlns:xsi="http://www.w3.org/2001/XMLSchema-instance" xsi:noNamespaceSchemaLocation="http://sumo.dlr.de/xsd/net_file.xsd">

    <location netOffset="-528462.54,-4496843.55" convBoundary="0.00,0.00,2372.90,2671.57" origBoundary="-8.685313,40.591838,-8.613083,40.654767" projParameter="+proj=utm +zone=29 +ellps=WGS84 +datum=WGS84 +units=m +no_defs"/>

    <type id="highway.living_street" priority="2" numLanes="1" speed="2.78" disallow="tram rail_urban rail rail_electric rail_fast ship container cable_car subway aircraft wheelchair scooter drone" oneway="0"/>
    <type id="highway.motorway" priority="14" numLanes="2" speed="39.44" allow="private emergency authority army vip passenger hov taxi bus coach delivery truck trailer motorcycle evehicle custom1 custom2" oneway="1"/>
    <type id="highway.motorway_link" priority="9" numLanes="1" speed="22.22" allow="private emergency authority army vip passenger hov taxi bus coach delivery truck trailer motorcycle evehicle custom1 custom2" oneway="1"/>
    <type id="highway.primary" priority="12" numLanes="2" speed="27.78" disallow="tram rail_urban rail rail_electric rail_fast ship container cable_car subway aircraft wheelchair scooter drone" oneway="0"/>
    <type id="highway.primary_link" priority="7" numLanes="1" speed="22.22" disallow="tram rail_urban rail rail_electric rail_fast ship container cable_car subway aircraft wheelchair scooter drone" oneway="0"/>
    <type id="highway.residential" priority="3" numLanes="1" speed="13.89" disallow="tram rail_urban rail rail_electric rail_fast ship container cable_car subway aircraft wheelchair scooter drone" oneway="0"/>
    <type id="highway.secondary" priority="11" numLanes="1" speed="27.78" disallow="tram rail_urban rail rail_electric rail_fast ship container cable_car subway aircraft wheelchair scooter drone" oneway="0"/>
    <type id="highway.secondary_link" priority="6" numLanes="1" speed="22.22" disallow="tram rail_urban rail rail_electric rail_fast ship container cable_car subway aircraft wheelchair scooter drone" oneway="0"/>
    <type id="highway.tertiary" priority="10" numLanes="1" speed="22.22" disallow="tram rail_urban rail rail_electric rail_fast ship container cable_car subway aircraft wheelchair scooter drone" oneway="0"/>
    <type id="highway.unclassified" priority="4" numLanes="1" speed="13.89" disallow="tram rail_urban rail rail_electric rail_fast ship container cable_car subway aircraft wheelchair scooter drone" oneway="0"/>

    <edge id=":10002075834_0" function="internal">
        <lane id=":10002075834_0_0" index="0" disallow="tram rail_urban rail rail_electric rail_fast ship container cable_car subway aircraft wheelchair scooter drone" speed="20.84" length="7.01" shape="402.13,1767.54 402.65,1765.53 402.85,1764.12 402.93,1762.69 403.09,1760.61"/>
    </edge>
    <edge id=":10002075834_1" function="internal">
        <lane id=":10002075834_1_0" index="0" disallow="tram rail_urban rail rail_electric rail_fast ship container cable_car subway aircraft wheelchair scooter drone" speed="7.49" length="6.56" shape="402.13,1767.54 402.80,1765.88 403.74,1764.56 404.92,1763.55 406.37,1762.87"/>
    </edge>
    <edge id=":10002075838_0" function="internal">
        <lane id=":10002075838_0_0" index="0" disallow="tram rail_urban rail rail_electric rail_fast ship container cable_car subway aircraft wheelchair scooter drone" speed="10.88" length="5.38" shape="407.47,1759.19 408.48,1760.44 409.17,1761.35 410.00,1762.05 411.42,1762.66"/>
    </edge>
    <edge id=":10002075838_1" function="internal">
        <lane id=":10002075838_1_0" index="0" disallow="tram rail_urban rail rail_electric rail_fast ship container cable_car subway aircraft wheelchair scooter drone" speed="8.98" length="5.01" shape="406.56,1762.81 407.97,1762.36 408.99,1762.17 410.01,1762.27 411.42,1762.66"/>
    </edge>
    <edge id=":10002075839_0" function="internal">
        <lane id=":10002075839_0_0" index="0" disallow="tram rail_urban rail rail_electric rail_fast ship container cable_car subway aircraft wheelchair scooter drone" speed="14.90" length="6.19" shape="411.61,1762.72 413.36,1763.11 414.61,1763.06 415.88,1762.77 417.70,1762.45"/>
    </edge>
    <edge id=":10002075839_1" function="internal">
        <lane id=":10002075839_1_0" index="0" disallow="tram rail_urban rail rail_electric rail_fast ship container cable_car subway aircraft wheelchair scooter drone" speed="7.26" length="5.96" shape="411.61,1762.72 413.20,1763.36 414.46,1764.20 415.39,1765.22 415.99,1766.43"/>
    </edge>
    <edge id=":10002075840_0" function="internal">
        <lane id=":10002075840_0_0" index="0" disallow="tram rail_urban rail rail_electric rail_fast ship container cable_car subway aircraft wheelchair scooter drone" speed="9.95" length="4.45" shape="419.27,1768.59 418.23,1769.42 417.48,1769.99 416.90,1770.67 416.39,1771.84"/>
    </edge>
    <edge id=":10002075840_1" function="internal">
        <lane id=":10002075840_1_0" index="0" disallow="tram rail_urban rail rail_electric rail_fast ship container cable_car subway aircraft wheelchair scooter drone" speed="9.03" length="5.40" shape="416.05,1766.62 416.57,1768.14 416.84,1769.23 416.80,1770.33 416.39,1771.84"/>
    </edge>
    <edge id=":10002075841_0" function="internal">
        <lane id=":10002075841_0_0" index="0" disallow="tram rail_urban rail rail_electric rail_fast ship container cable_car subway aircraft wheelchair scooter drone" speed="8.02" length="5.52" shape="416.32,1772.03 416.03,1773.55 416.27,1774.62 416.89,1775.67 417.70,1777.12"/>
    </edge>
    <edge id=":10002075841_1" function="internal">
        <lane id=":10002075841_1_0" index="0" disallow="tram rail_urban rail rail_electric rail_fast ship container cable_car subway aircraft wheelchair scooter drone" speed="8.06" length="4.78" shape="416.32,1772.03 415.87,1773.37 415.44,1774.27 414.78,1774.99 413.64,1775.78"/>
    </edge>
    <edge id=":10002075844_0" function="internal">
        <lane id=":10002075844_0_0" index="0" disallow="tram rail_urban rail rail_electric rail_fast ship container cable_car subway aircraft wheelchair scooter drone" speed="14.07" length="6.20" shape="413.72,1780.01 412.23,1778.92 411.20,1778.11 410.10,1777.53 408.34,1777.15"/>
    </edge>
    <edge id=":10002075844_1" function="internal">
        <lane id=":10002075844_1_0" index="0" disallow="tram rail_urban rail rail_electric rail_fast ship container cable_car subway aircraft wheelchair scooter drone" speed="8.66" length="5.46" shape="413.47,1775.89 412.09,1776.72 411.04,1777.17 409.93,1777.30 408.34,1777.15"/>
    </edge>
    <edge id=":10002075845_0" function="internal">
        <lane id=":10002075845_0_0" index="0" disallow="tram rail_urban rail rail_electric rail_fast ship container cable_car subway aircraft wheelchair scooter drone" speed="15.11" length="6.29" shape="408.14,1777.12 406.32,1777.02 405.07,1777.27 403.85,1777.76 402.07,1778.37"/>
    </edge>
    <edge id=":10002075845_1" function="internal">
        <lane id=":10002075845_1_0" index="0" disallow="tram rail_urban rail rail_electric rail_fast ship container cable_car subway aircraft wheelchair scooter drone" speed="6.97" length="6.17" shape="408.14,1777.12 406.29,1776.73 404.81,1776.10 403.72,1775.25 403.02,1774.17"/>
    </edge>
    <edge id=":10002075852_0" function="internal">
        <lane id=":10002075852_0_0" index="0" disallow="tram rail_urban rail rail_electric rail_fast ship container cable_car subway aircraft wheelchair scooter drone" speed="9.32" length="6.55" shape="402.94,1773.99 402.15,1772.21 401.69,1770.90 401.64,1769.57 402.07,1767.73"/>
    </edge>
    <edge id=":10002075852_1" function="internal">
        <lane id=":10002075852_1_0" index="0" disallow="tram rail_urban rail rail_electric rail_fast ship container cable_car subway aircraft wheelchair scooter drone" speed="27.78" length="6.74" shape="398.66,1773.47 399.84,1771.85 400.70,1770.76 401.39,1769.58 402.07,1767.73"/>
    </edge>
    <edge id=":10002075853_0" function="internal">
        <lane id=":10002075853_0_0" index="0" disallow="tram rail_urban rail rail_electric rail_fast ship container cable_car subway aircraft wheelchair scooter drone" speed="27.78" length="5.51" shape="400.99,1778.69 399.44,1779.19 398.43,1779.68 397.49,1780.29 396.12,1781.19"/>
    </edge>
    <edge id=":10002075853_1" function="internal">
        <lane id=":10002075853_1_0" index="0" disallow="tram rail_urban rail rail_electric rail_fast ship container cable_car subway aircraft wheelchair scooter drone" speed="4.98" length="3.58" shape="400.99,1778.69 398.04,1779.29 397.47,1779.20"/>
    </edge>
    <edge id=":10002075853_3" function="internal">
        <lane id=":10002075853_3_0" index="0" disallow="tram rail_urban rail rail_electric rail_fast ship container cable_car subway aircraft wheelchair scooter drone" speed="4.98" length="4.50" shape="397.47,1779.20 396.40,1779.03 396.07,1777.89 397.05,1775.88"/>
    </edge>
    <edge id=":10002075853_2" function="internal">
        <lane id=":10002075853_2_0" index="0" disallow="tram rail_urban rail rail_electric rail_fast ship container cable_car subway aircraft wheelchair scooter drone" speed="11.63" length="3.76" shape="394.41,1778.49 395.34,1777.88 395.93,1777.39 396.42,1776.80 397.05,1775.88"/>
    </edge>
    <edge id=":10002075854_0" function="internal">
        <lane id=":10002075854_0_0" index="0" disallow="tram rail_urban rail rail_electric rail_fast ship container cable_car subway aircraft wheelchair scooter drone" speed="20.84" length="9.20" shape="427.10,1763.44 424.75,1764.84 423.10,1765.73 421.52,1766.73 419.42,1768.46"/>
    </edge>
    <edge id=":10002075854_1" function="internal">
        <lane id=":10002075854_1_0" index="0" disallow="tram rail_urban rail rail_electric rail_fast ship container cable_car subway aircraft wheelchair scooter drone" speed="11.67" length="4.76" shape="420.88,1762.09 422.29,1761.95 423.26,1761.80 424.16,1761.46 425.37,1760.75"/>
    </edge>
    <edge id=":10002075854_2" function="internal">
        <lane id=":10002075854_2_0" index="0" disallow="tram rail_urban rail rail_electric rail_fast ship container cable_car subway aircraft wheelchair scooter drone" speed="5.43" length="3.57" shape="420.88,1762.09 423.22,1762.22 423.76,1763.32"/>
    </edge>
    <edge id=":10002075854_3" function="internal">
        <lane id=":10002075854_3_0" index="0" disallow="tram rail_urban rail rail_electric rail_fast ship container cable_car subway aircraft wheelchair scooter drone" speed="5.43" length="6.77" shape="423.76,1763.32 422.49,1765.40 419.42,1768.46"/>
    </edge>
    <edge id=":10002075855_0" function="internal">
        <lane id=":10002075855_0_0" index="0" disallow="tram rail_urban rail rail_electric rail_fast ship container cable_car subway aircraft wheelchair scooter drone" speed="11.11" length="3.56" shape="405.69,1755.94 406.03,1756.94 406.29,1757.62 406.66,1758.24 407.33,1759.04"/>
    </edge>
    <edge id=":10002075855_1" function="internal">
        <lane id=":10002075855_1_0" index="0" disallow="tram rail_urban rail rail_electric rail_fast ship container cable_car subway aircraft wheelchair scooter drone" speed="10.24" length="3.38" shape="403.13,1760.30 403.21,1759.31 403.17,1758.62 403.00,1757.95 402.67,1757.00"/>
    </edge>
    <edge id=":10002075855_2" function="internal">
        <lane id=":10002075855_2_0" index="0" disallow="tram rail_urban rail rail_electric rail_fast ship container cable_car subway aircraft wheelchair scooter drone" speed="4.76" length="2.45" shape="403.13,1760.30 403.60,1758.26 403.85,1758.01"/>
    </edge>
    <edge id=":10002075855_3" function="internal">
        <lane id=":10002075855_3_0" index="0" disallow="tram rail_urban rail rail_electric rail_fast ship container cable_car subway aircraft wheelchair scooter drone" speed="4.76" length="4.30" shape="403.85,1758.01 404.46,1757.38 405.70,1757.63 407.33,1759.04"/>
    </edge>
    <edge id=":10002075857_0" function="internal">
        <lane id=":10002075857_0_0" index="0" disallow="tram rail_urban rail rail_electric rail_fast ship container cable_car subway aircraft wheelchair scooter drone" speed="13.89" length="6.01" shape="419.52,1785.53 418.24,1784.30 417.55,1783.26 416.83,1782.25 415.47,1781.14"/>
    </edge>
    <edge id=":10002075857_1" function="internal">
        <lane id=":10002075857_1_0" index="0" disallow="tram rail_urban rail rail_electric rail_fast ship container cable_car subway aircraft wheelchair scooter drone" speed="12.18" length="5.47" shape="418.40,1778.56 419.07,1780.05 419.56,1781.07 420.25,1781.95 421.46,1782.98"/>
    </edge>
    <edge id=":10002075857_2" function="internal">
        <lane id=":10002075857_2_0" index="0" disallow="tram rail_urban rail rail_electric rail_fast ship container cable_car subway aircraft wheelchair scooter drone" speed="4.86" length="2.95" shape="418.40,1778.56 419.37,1781.15 419.35,1781.34"/>
    </edge>
    <edge id=":10002075857_3" function="internal">
        <lane id=":10002075857_3_0" index="0" disallow="tram rail_urban rail rail_electric rail_fast ship container cable_car subway aircraft wheelchair scooter drone" speed="4.86" length="5.17" shape="419.35,1781.34 419.21,1782.44 417.91,1782.43 415.47,1781.14"/>
    </edge>
    <edge id=":10053972095_0" function="internal">
        <lane id=":10053972095_0_0" index="0" disallow="tram rail_urban rail rail_electric rail_fast ship container cable_car subway aircraft wheelchair scooter drone" speed="11.11" length="0.28" shape="252.03,1434.72 251.91,1434.47"/>
    </edge>
    <edge id=":10053972095_1" function="internal">
        <lane id=":10053972095_1_0" index="0" disallow="tram rail_urban rail rail_electric rail_fast ship container cable_car subway aircraft wheelchair scooter drone" speed="11.11" length="0.31" shape="254.78,1433.07 254.92,1433.35"/>
    </edge>
    <edge id=":10212032698_0" function="internal">
        <lane id=":10212032698_0_0" index="0" disallow="tram rail_urban rail rail_electric rail_fast ship container cable_car subway aircraft wheelchair scooter drone" speed="13.89" length="3.00" width="3.40" shape="1242.00,1661.14 1239.64,1663.00"/>
    </edge>
    <edge id=":1068433656_0" function="internal">
        <lane id=":1068433656_0_0" index="0" disallow="tram rail_urban rail rail_electric rail_fast ship container cable_car subway aircraft wheelchair scooter drone" speed="7.84" length="5.73" shape="1631.49,382.38 1632.08,383.97 1632.81,385.27 1633.68,386.26 1634.69,386.96"/>
    </edge>
    <edge id=":1068433656_1" function="internal">
        <lane id=":1068433656_1_0" index="0" disallow="tram rail_urban rail rail_electric rail_fast ship container cable_car subway aircraft wheelchair scooter drone" speed="10.42" length="5.96" shape="1628.91,386.27 1630.67,386.06 1631.91,386.00 1633.09,386.25 1634.69,386.96"/>
    </edge>
    <edge id=":1068433657_0" function="internal">
        <lane id=":1068433657_0_0" index="0" disallow="tram rail_urban rail rail_electric rail_fast ship container cable_car subway aircraft wheelchair scooter drone" speed="6.14" length="5.83" shape="1610.76,406.84 1610.44,406.15 1609.53,405.43 1608.02,404.69 1605.92,403.93"/>
    </edge>
    <edge id=":1068433657_1" function="internal">
        <lane id=":1068433657_1_0" index="0" disallow="tram rail_urban rail rail_electric rail_fast ship container cable_car subway aircraft wheelchair scooter drone" speed="12.63" length="10.66" shape="1610.76,406.84 1610.57,403.71 1610.53,401.41 1611.06,399.27 1612.57,396.65"/>
    </edge>
    <edge id=":1068433657_2" function="internal">
        <lane id=":1068433657_2_0" index="0" disallow="tram rail_urban rail rail_electric rail_fast ship container cable_car subway aircraft wheelchair scooter drone" speed="6.89" length="7.96" shape="1606.26,400.67 1607.73,400.77 1609.27,400.13 1610.89,398.76 1612.57,396.65"/>
    </edge>
    <edge id=":1068433662_0" function="internal">
        <lane id=":1068433662_0_0" index="0" disallow="tram rail_urban rail rail_electric rail_fast ship container cable_car subway aircraft wheelchair scooter drone" speed="6.51" length="9.03" shape="1480.37,330.00 1477.96,329.45 1475.95,329.79 1474.34,331.05 1473.12,333.21"/>
    </edge>
    <edge id=":1068433662_1" function="internal">
        <lane id=":1068433662_1_0" index="0" disallow="tram rail_urban rail rail_electric rail_fast ship container cable_car subway aircraft wheelchair scooter drone" speed="7.40" length="2.35" shape="1480.37,330.00 1478.42,328.70"/>
    </edge>
    <edge id=":1068433662_5" function="internal">
        <lane id=":1068433662_5_0" index="0" disallow="tram rail_urban rail rail_electric rail_fast ship container cable_car subway aircraft wheelchair scooter drone" speed="7.40" length="9.40" shape="1478.42,328.70 1478.28,328.61 1477.21,326.43 1477.16,323.47 1478.13,319.74"/>
    </edge>
    <edge id=":1068433662_2" function="internal">
        <lane id=":1068433662_2_0" index="0" disallow="tram rail_urban rail rail_electric rail_fast ship container cable_car subway aircraft wheelchair scooter drone" speed="6.99" length="10.42" shape="1470.34,324.67 1472.84,325.04 1474.97,324.34 1476.73,322.58 1478.13,319.74"/>
    </edge>
    <edge id=":1068433662_3" function="internal">
        <lane id=":1068433662_3_0" index="0" disallow="tram rail_urban rail rail_electric rail_fast ship container cable_car subway aircraft wheelchair scooter drone" speed="13.89" length="11.46" shape="1470.34,324.67 1473.43,325.46 1475.96,325.77 1478.48,326.11 1481.53,327.02"/>
    </edge>
    <edge id=":1068433662_4" function="internal">
        <lane id=":1068433662_4_0" index="0" disallow="tram rail_urban rail rail_electric rail_fast ship container cable_car subway aircraft wheelchair scooter drone" speed="6.80" length="6.19" shape="1470.34,324.67 1472.54,325.89 1473.74,327.72 1473.86,329.20"/>
    </edge>
    <edge id=":1068433662_6" function="internal">
        <lane id=":1068433662_6_0" index="0" disallow="tram rail_urban rail rail_electric rail_fast ship container cable_car subway aircraft wheelchair scooter drone" speed="6.80" length="4.11" shape="1473.86,329.20 1473.93,330.16 1473.12,333.21"/>
    </edge>
    <edge id=":1068433664_0" function="internal">
        <lane id=":1068433664_0_0" index="0" disallow="tram rail_urban rail rail_electric rail_fast ship container cable_car subway aircraft wheelchair scooter drone" speed="8.27" length="8.12" shape="1620.19,420.73 1618.79,420.15 1617.02,420.02 1614.87,420.36 1612.34,421.16"/>
        <lane id=":1068433664_0_1" index="1" disallow="tram rail_urban rail rail_electric rail_fast ship container cable_car subway aircraft wheelchair scooter drone" speed="8.98" length="9.66" shape="1620.19,420.73 1617.51,419.14 1615.12,418.18 1613.02,417.85 1611.21,418.17"/>
    </edge>
    <edge id=":1068433664_2" function="internal">
        <lane id=":1068433664_2_0" index="0" disallow="tram rail_urban rail rail_electric rail_fast ship container cable_car subway aircraft wheelchair scooter drone" speed="12.65" length="10.89" shape="1620.19,420.73 1617.50,419.04 1615.51,417.71 1613.99,416.02 1612.72,413.25"/>
    </edge>
    <edge id=":1068433669_0" function="internal">
        <lane id=":1068433669_0_0" index="0" disallow="tram rail_urban rail rail_electric rail_fast ship container cable_car subway aircraft wheelchair scooter drone" speed="11.11" length="11.26" shape="1635.87,428.94 1633.87,426.49 1631.96,424.98 1629.70,423.97 1626.64,423.05"/>
    </edge>
    <edge id=":1068433669_1" function="internal">
        <lane id=":1068433669_1_0" index="0" disallow="tram rail_urban rail rail_electric rail_fast ship container cable_car subway aircraft wheelchair scooter drone" speed="6.64" length="8.92" shape="1640.18,419.30 1638.36,421.21 1637.47,423.14 1637.50,425.10 1638.46,427.07"/>
    </edge>
    <edge id=":1068433669_2" function="internal">
        <lane id=":1068433669_2_0" index="0" disallow="tram rail_urban rail rail_electric rail_fast ship container cable_car subway aircraft wheelchair scooter drone" speed="10.88" length="14.63" shape="1640.18,419.30 1636.80,421.65 1633.41,423.06 1630.02,423.52 1626.64,423.05"/>
    </edge>
    <edge id=":111759051#0-AddedOffRampNode_0" function="internal">
        <lane id=":111759051#0-AddedOffRampNode_0_0" index="0" disallow="tram rail_urban rail rail_electric rail_fast ship container cable_car subway aircraft wheelchair scooter drone" speed="22.22" length="8.27" shape="1434.68,643.35 1436.82,644.67 1438.69,644.92 1440.57,645.16 1442.71,646.48"/>
        <lane id=":111759051#0-AddedOffRampNode_0_1" index="1" disallow="tram rail_urban rail rail_electric rail_fast ship container cable_car subway aircraft wheelchair scooter drone" speed="22.22" length="8.27" shape="1434.68,643.35 1440.52,648.82"/>
        <lane id=":111759051#0-AddedOffRampNode_0_2" index="2" disallow="tram rail_urban rail rail_electric rail_fast ship container cable_car subway aircraft wheelchair scooter drone" speed="22.22" length="8.27" shape="1432.49,645.69 1438.34,651.15"/>
    </edge>
    <edge id=":11204904513_0" function="internal">
        <lane id=":11204904513_0_0" index="0" disallow="tram rail_urban rail rail_electric rail_fast ship container cable_car subway aircraft wheelchair scooter drone" speed="15.28" length="0.24" shape="863.47,2190.28 863.31,2190.17"/>
        <lane id=":11204904513_0_1" index="1" disallow="tram rail_urban rail rail_electric rail_fast ship container cable_car subway aircraft wheelchair scooter drone" speed="15.28" length="0.24" shape="865.31,2187.66 865.08,2187.50"/>
    </edge>
    <edge id=":11204904513_2" function="internal">
        <lane id=":11204904513_2_0" index="0" disallow="tram rail_urban rail rail_electric rail_fast ship container cable_car subway aircraft wheelchair scooter drone" speed="15.28" length="0.36" shape="866.84,2184.83 867.14,2185.03"/>
    </edge>
    <edge id=":11204904519_0" function="internal">
        <lane id=":11204904519_0_0" index="0" disallow="tram rail_urban rail rail_electric rail_fast ship container cable_car subway aircraft wheelchair scooter drone" speed="8.33" length="12.73" shape="1273.02,2297.32 1276.98,2297.21 1279.89,2297.32 1282.52,2297.63 1285.70,2298.10"/>
    </edge>
    <edge id=":11204904519_1" function="internal">
        <lane id=":11204904519_1_0" index="0" disallow="tram rail_urban rail rail_electric rail_fast ship container cable_car subway aircraft wheelchair scooter drone" speed="7.97" length="14.51" shape="1276.97,2307.32 1277.93,2302.87 1279.71,2299.84 1282.30,2298.25 1285.70,2298.10"/>
    </edge>
    <edge id=":11204904524_0" function="internal">
        <lane id=":11204904524_0_0" index="0" disallow="tram rail_urban rail rail_electric rail_fast ship container cable_car subway aircraft wheelchair scooter drone" speed="8.33" length="5.09" shape="1279.23,2314.46 1278.11,2313.47 1277.23,2312.94 1276.27,2312.50 1274.92,2311.81"/>
    </edge>
    <edge id=":11204904524_1" function="internal">
        <lane id=":11204904524_1_0" index="0" disallow="tram rail_urban rail rail_electric rail_fast ship container cable_car subway aircraft wheelchair scooter drone" speed="8.03" length="6.96" shape="1279.23,2314.46 1278.06,2313.05 1277.28,2311.53 1276.88,2309.90 1276.88,2308.16"/>
    </edge>
    <edge id=":11204904529_0" function="internal">
        <lane id=":11204904529_0_0" index="0" disallow="tram rail_urban rail rail_electric rail_fast ship container cable_car subway aircraft wheelchair scooter drone" speed="8.33" length="4.11" shape="1294.27,2316.92 1293.05,2316.88 1292.21,2316.88 1291.38,2317.02 1290.24,2317.41"/>
    </edge>
    <edge id=":11204904529_1" function="internal">
        <lane id=":11204904529_1_0" index="0" disallow="tram rail_urban rail rail_electric rail_fast ship container cable_car subway aircraft wheelchair scooter drone" speed="8.33" length="7.27" shape="1295.61,2312.81 1294.84,2314.22 1293.69,2315.46 1292.16,2316.52 1290.24,2317.41"/>
    </edge>
    <edge id=":11204904533_0" function="internal">
        <lane id=":11204904533_0_0" index="0" disallow="tram rail_urban rail rail_electric rail_fast ship container cable_car subway aircraft wheelchair scooter drone" speed="8.33" length="5.37" shape="1294.30,2301.72 1295.49,2302.77 1296.40,2303.37 1297.36,2303.91 1298.72,2304.74"/>
    </edge>
    <edge id=":11204904533_1" function="internal">
        <lane id=":11204904533_1_0" index="0" disallow="tram rail_urban rail rail_electric rail_fast ship container cable_car subway aircraft wheelchair scooter drone" speed="8.33" length="7.48" shape="1294.30,2301.72 1295.47,2303.12 1296.26,2304.73 1296.67,2306.54 1296.69,2308.55"/>
    </edge>
    <edge id=":11226801955_0" function="internal">
        <lane id=":11226801955_0_0" index="0" disallow="tram rail_urban rail rail_electric rail_fast ship container cable_car subway aircraft wheelchair scooter drone" speed="8.33" length="14.40" shape="1684.92,478.81 1674.48,468.89"/>
    </edge>
    <edge id=":11226801955_1" function="internal">
        <lane id=":11226801955_1_0" index="0" disallow="tram rail_urban rail rail_electric rail_fast ship container cable_car subway aircraft wheelchair scooter drone" speed="8.06" length="14.22" shape="1684.92,478.81 1682.53,475.78 1681.67,472.68 1682.35,469.52 1684.57,466.30"/>
    </edge>
    <edge id=":11226801955_2" function="internal">
        <lane id=":11226801955_2_0" index="0" disallow="tram rail_urban rail rail_electric rail_fast ship container cable_car subway aircraft wheelchair scooter drone" speed="6.57" length="9.12" shape="1686.93,468.47 1685.50,470.54 1685.05,472.57 1685.59,474.55 1687.12,476.49"/>
    </edge>
    <edge id=":11226801955_3" function="internal">
        <lane id=":11226801955_3_0" index="0" disallow="tram rail_urban rail rail_electric rail_fast ship container cable_car subway aircraft wheelchair scooter drone" speed="7.97" length="14.26" shape="1686.93,468.47 1683.89,470.95 1680.81,471.85 1677.67,471.16 1674.48,468.89"/>
    </edge>
    <edge id=":11226801955_4" function="internal">
        <lane id=":11226801955_4_0" index="0" disallow="tram rail_urban rail rail_electric rail_fast ship container cable_car subway aircraft wheelchair scooter drone" speed="6.47" length="9.03" shape="1676.68,466.57 1678.71,468.01 1680.69,468.44 1682.65,467.88 1684.57,466.30"/>
    </edge>
    <edge id=":11226801955_5" function="internal">
        <lane id=":11226801955_5_0" index="0" disallow="tram rail_urban rail rail_electric rail_fast ship container cable_car subway aircraft wheelchair scooter drone" speed="8.33" length="14.40" shape="1676.68,466.57 1687.12,476.49"/>
    </edge>
    <edge id=":11364058459_0" function="internal">
        <lane id=":11364058459_0_0" index="0" disallow="tram rail_urban rail rail_electric rail_fast ship container cable_car subway aircraft wheelchair scooter drone" speed="6.71" length="5.19" shape="1366.47,577.58 1366.55,578.27 1367.02,579.22 1367.89,580.43 1369.17,581.91"/>
    </edge>
    <edge id=":11364058459_1" function="internal">
        <lane id=":11364058459_1_0" index="0" disallow="tram rail_urban rail rail_electric rail_fast ship container cable_car subway aircraft wheelchair scooter drone" speed="27.78" length="5.31" shape="1366.47,577.58 1366.03,579.18 1365.56,580.21 1365.00,581.22 1364.27,582.72"/>
        <lane id=":11364058459_1_1" index="1" disallow="tram rail_urban rail rail_electric rail_fast ship container cable_car subway aircraft wheelchair scooter drone" speed="27.78" length="5.31" shape="1363.35,576.87 1362.95,578.29 1362.51,579.21 1361.99,580.10 1361.34,581.44"/>
    </edge>
    <edge id=":11364079822_0" function="internal">
        <lane id=":11364079822_0_0" index="0" disallow="pedestrian tram rail_urban rail rail_electric rail_fast ship container cable_car subway aircraft wheelchair scooter drone" speed="7.56" length="6.10" shape="1347.02,601.21 1345.51,599.74 1344.18,598.70 1343.02,598.11 1342.04,597.96"/>
    </edge>
    <edge id=":11364079822_1" function="internal">
        <lane id=":11364079822_1_0" index="0" disallow="tram rail_urban rail rail_electric rail_fast ship container cable_car subway aircraft wheelchair scooter drone" speed="27.78" length="6.47" shape="1348.61,596.37 1346.69,596.98 1345.37,597.42 1344.03,597.73 1342.04,597.96"/>